masterCircuit_PV.dss
New Circuit.IEEE8500 pu=1.01  r1=0  x1=0.001  r0=0  x0=0.001
New linecode.1ph-x4_acsrx4_acsr nphases=1 units=km rmatrix=1.67466 xmatrix=0.93456 cmatrix=6.32285
New linecode.1ph-xx4_acsr4_acsr nphases=1 units=km rmatrix=1.67466 xmatrix=0.93456 cmatrix=6.32285
New linecode.1ph-x2_acsrx2_acsr nphases=1 units=km rmatrix=1.1223 xmatrix=0.896365 cmatrix=6.49582
New linecode.1ph-x4_acsrx4_wpal nphases=1 units=km rmatrix=1.67723 xmatrix=0.932411 cmatrix=6.32285
New linecode.3ph_h-4_acsr4_acsr4_acsr4_acsr nphases=3 units=km rmatrix=[1.6834 |0.138324 1.67686 |0.142669 0.139294 1.68543] xmatrix=[0.9273 |0.432623 0.932728 |0.412253 0.450469 0.925637] cmatrix=[7.60098 |-1.99751 7.88811 |-1.66797 -2.32489 7.78037]
New linecode.3ph_h-2/0_acsr2/0_acsr2/0_acsr2_acsr nphases=3 units=km rmatrix=[0.66087 |0.137499 0.653999 |0.142066 0.138518 0.663007] xmatrix=[0.869947 |0.388579 0.878528 |0.366115 0.405953 0.8673] cmatrix=[8.3452 |-2.31601 8.72099 |-1.91256 -2.71715 8.57671]
New linecode.1ph-4_wpalxx2_wpal nphases=1 units=km rmatrix=1.63092 xmatrix=0.861221 cmatrix=6.32285
New linecode.3ph_h-4_acsr2_acsr2_acsr4_wpal nphases=3 units=km rmatrix=[1.68626 |0.141078 1.12824 |0.145566 0.14208 1.1371] xmatrix=[0.924966 |0.430359 0.933765 |0.409898 0.448185 0.926495] cmatrix=[7.63018 |-2.04889 8.18434 |-1.70374 -2.48649 8.06911]
New linecode.1ph-4_acsrxx4_acsr nphases=1 units=km rmatrix=1.67466 xmatrix=0.93456 cmatrix=6.32285
New linecode.3ph_h-4_acsr4_acsr4_acsr4_wpal nphases=3 units=km rmatrix=[1.68626 |0.141078 1.6795 |0.145566 0.14208 1.68836] xmatrix=[0.924966 |0.430359 0.930531 |0.409898 0.448185 0.923261] cmatrix=[7.60098 |-1.99751 7.88811 |-1.66797 -2.32489 7.78037]
New linecode.1ph-2_acsrxx2_acsr nphases=1 units=km rmatrix=1.1223 xmatrix=0.896365 cmatrix=6.49582
New linecode.1ph-4_wpalxx4_acsr nphases=1 units=km rmatrix=1.63124 xmatrix=0.898979 cmatrix=6.32285
New linecode.3ph_h-397_acsr397_acsr397_acsr2/0_acsr nphases=3 units=km rmatrix=[0.270019 |0.109951 0.264634 |0.113538 0.110747 0.271698] xmatrix=[0.695974 |0.33351 0.708729 |0.308271 0.350259 0.692021] cmatrix=[9.13606 |-2.66777 9.62226 |-2.17646 -3.15664 9.43197]
New linecode.1ph-2_acsrxx4_acsr nphases=1 units=km rmatrix=1.12339 xmatrix=0.937794 cmatrix=6.49582
New linecode.1ph-xx2_acsr2_acsr nphases=1 units=km rmatrix=1.1223 xmatrix=0.896365 cmatrix=6.49582
New linecode.1ph-xx4_wpal4_wpal nphases=1 units=km rmatrix=1.63382 xmatrix=0.89683 cmatrix=6.32285
New linecode.1ph-x4_wpalx4_wpal nphases=1 units=km rmatrix=1.63382 xmatrix=0.89683 cmatrix=6.32285
New linecode.1ph-xx4_wpal4_acsr nphases=1 units=km rmatrix=1.63124 xmatrix=0.898979 cmatrix=6.32285
New linecode.1ph-x2_acsrx1/0_tpx nphases=1 units=km rmatrix=1.03207 xmatrix=0.801436 cmatrix=6.49582
New linecode.1ph-4_acsrxx4_wpal nphases=1 units=km rmatrix=1.67723 xmatrix=0.932411 cmatrix=6.32285
New linecode.1ph-xx4_acsr1/0_tpx nphases=1 units=km rmatrix=1.58334 xmatrix=0.798203 cmatrix=6.32285
New linecode.3ph_h-4_wpal4_wpal4_wpal4_acsr nphases=3 units=km rmatrix=[1.63999 |0.138324 1.63344 |0.142669 0.139294 1.64202] xmatrix=[0.891719 |0.432623 0.897146 |0.412253 0.450469 0.890056] cmatrix=[7.60098 |-1.99751 7.88811 |-1.66797 -2.32489 7.78037]
New linecode.1ph-x4_wpalx4_acsr nphases=1 units=km rmatrix=1.63124 xmatrix=0.898979 cmatrix=6.32285
New linecode.1ph-4_wpalxx4_wpal nphases=1 units=km rmatrix=1.63382 xmatrix=0.89683 cmatrix=6.32285
New linecode.3ph_h-4_wpal4_wpal4_wpal4_wpal nphases=3 units=km rmatrix=[1.64285 |0.141078 1.63609 |0.145566 0.14208 1.64495] xmatrix=[0.889385 |0.430359 0.89495 |0.409898 0.448185 0.88768] cmatrix=[7.60098 |-1.99751 7.88811 |-1.66797 -2.32489 7.78037]
New linecode.3ph_h-2_acsr2_acsr2_acsr2_acsr nphases=3 units=km rmatrix=[1.13148 |0.137499 1.12461 |0.142066 0.138518 1.13362] xmatrix=[0.884886 |0.388579 0.893467 |0.366115 0.405953 0.882239] cmatrix=[7.8835 |-2.11691 8.2026 |-1.7603 -2.4713 8.08174]
New linecode.1ph-4_acsrxx1/0_tpx nphases=1 units=km rmatrix=1.58334 xmatrix=0.798203 cmatrix=6.32285
New linecode.3ph_h-4_acsr2_acsr2_acsr4_acsr nphases=3 units=km rmatrix=[1.6834 |0.138324 1.12559 |0.142669 0.139294 1.13417] xmatrix=[0.9273 |0.432623 0.935962 |0.412253 0.450469 0.928871] cmatrix=[7.63018 |-2.04889 8.18434 |-1.70374 -2.48649 8.06911]
New linecode.1ph-xx4_acsr4_wpal nphases=1 units=km rmatrix=1.67723 xmatrix=0.932411 cmatrix=6.32285
New linecode.1ph-4_acsrxx2_acsr nphases=1 units=km rmatrix=1.67357 xmatrix=0.893131 cmatrix=6.32285
New linecode.1ph-x4_wpalx1/0_tpx nphases=1 units=km rmatrix=1.53992 xmatrix=0.762621 cmatrix=6.32285
New linecode.1ph-xx4_acsr1/0_acsr nphases=1 units=km rmatrix=1.65698 xmatrix=0.855269 cmatrix=6.32285
New linecode.1ph-2_acsrxx4_wpal nphases=1 units=km rmatrix=1.12597 xmatrix=0.935645 cmatrix=6.49582
New linecode.1ph-xx2/0_acsr1/0_tpx nphases=1 units=km rmatrix=0.561461 xmatrix=0.786498 cmatrix=6.76998
New linecode.2ph_h-2_acsrx2_acsr2_acsr nphases=2 units=km rmatrix=[1.13148 |0.142066 1.13362] xmatrix=[0.884886 |0.366115 0.882239] cmatrix=[7.33718 |-2.39809 7.33718]
New linecode.1ph-2_wpalxx2_wpal nphases=1 units=km rmatrix=1.16232 xmatrix=0.900036 cmatrix=6.49582
New linecode.1ph-2_acsrxx4/0_tpx nphases=1 units=km rmatrix=1.07236 xmatrix=0.807978 cmatrix=6.49582
New linecode.3ph_h-397_acsr397_acsr397_acsr4_wpal nphases=3 units=km rmatrix=[0.301838 |0.141078 0.295078 |0.145566 0.14208 0.303936] xmatrix=[0.796484 |0.430359 0.802049 |0.409898 0.448185 0.794778] cmatrix=[9.13606 |-2.66777 9.62226 |-2.17646 -3.15664 9.43197]
New linecode.3ph_h-397_acsr397_acsr397_acsr397_acsr nphases=3 units=km rmatrix=[0.214162 |0.0557957 0.212131 |0.0571636 0.0560892 0.214801] xmatrix=[0.634957 |0.27487 0.652375 |0.246528 0.29092 0.629544] cmatrix=[9.13606 |-2.66777 9.62226 |-2.17646 -3.15664 9.43197]
New linecode.1ph-xx2_acsr1/0_tpx nphases=1 units=km rmatrix=1.03207 xmatrix=0.801436 cmatrix=6.49582
New linecode.1ph-x4_acsrx2_wpal nphases=1 units=km rmatrix=1.67434 xmatrix=0.896802 cmatrix=6.32285
New linecode.1ph-x4_acsrx4_dpx nphases=1 units=km rmatrix=1.6773 xmatrix=0.932059 cmatrix=6.32285
New linecode.3ph_h-2_acsr2_acsr4_acsr4_acsr nphases=3 units=km rmatrix=[1.13214 |0.138324 1.12559 |0.142669 0.139294 1.68543] xmatrix=[0.930534 |0.432623 0.935962 |0.412253 0.450469 0.925637] cmatrix=[7.87088 |-2.13463 8.17773 |-1.70236 -2.38996 7.81573]
New linecode.1ph-4_wpalxx1/0_tpx nphases=1 units=km rmatrix=1.53992 xmatrix=0.762621 cmatrix=6.32285
New linecode.1ph-x4_acsrx1/0_tpx nphases=1 units=km rmatrix=1.58334 xmatrix=0.798203 cmatrix=6.32285
New linecode.1ph-4_acsrxx1/0_3w_cs nphases=1 units=km rmatrix=1.66186 xmatrix=0.844051 cmatrix=6.32285
New linecode.1ph-x2_acsrx4_acsr nphases=1 units=km rmatrix=1.12339 xmatrix=0.937794 cmatrix=6.49582
New linecode.1ph-x2_acsrx1/0_3w_cs nphases=1 units=km rmatrix=1.11059 xmatrix=0.847285 cmatrix=6.49582
New linecode.3ph_h-2/0_acsr2/0_acsr2/0_acsr2/0_acsr nphases=3 units=km rmatrix=[0.63257 |0.109951 0.627184 |0.113538 0.110747 0.634249] xmatrix=[0.812752 |0.33351 0.825507 |0.308271 0.350259 0.808799] cmatrix=[8.3452 |-2.31601 8.72099 |-1.91256 -2.71715 8.57671]
New linecode.1ph-2_acsrxx1/0_tpx nphases=1 units=km rmatrix=1.03207 xmatrix=0.801436 cmatrix=6.49582
New linecode.3ph_h-4_wpal4_wpal4_wpal1/0_tpx nphases=3 units=km rmatrix=[1.54119 |0.0423582 1.54023 |0.043017 0.0424921 1.5415] xmatrix=[0.740322 |0.286955 0.756994 |0.259106 0.303117 0.73514] cmatrix=[7.60098 |-1.99751 7.88811 |-1.66797 -2.32489 7.78037]
New linecode.1ph-x4_wpalx2_acsr nphases=1 units=km rmatrix=1.63015 xmatrix=0.85755 cmatrix=6.32285
New linecode.3ph_h-2/0_acsr2/0_acsr2/0_acsr2_wpal nphases=3 units=km rmatrix=[0.661672 |0.138291 0.654779 |0.142872 0.139313 0.663816] xmatrix=[0.874001 |0.392488 0.882296 |0.370214 0.409905 0.871444] cmatrix=[8.3452 |-2.31601 8.72099 |-1.91256 -2.71715 8.57671]
New linecode.1ph-xx4_acsr2_acsr nphases=1 units=km rmatrix=1.67357 xmatrix=0.893131 cmatrix=6.32285
New linecode.1ph-x4_acsrx4_tpx nphases=1 units=km rmatrix=1.6773 xmatrix=0.932059 cmatrix=6.32285
New linecode.3ph_h-4_acsr4_acsr4_acsr4_tpx nphases=3 units=km rmatrix=[1.68634 |0.141153 1.67957 |0.145647 0.142157 1.68844] xmatrix=[0.92458 |0.429986 0.930171 |0.409508 0.447808 0.922866] cmatrix=[7.60098 |-1.99751 7.88811 |-1.66797 -2.32489 7.78037]
New linecode.1ph-4_acsrxx6_wpal nphases=1 units=km rmatrix=1.66227 xmatrix=0.967202 cmatrix=6.32285
New linecode.1ph-xx4_acsr4_tpx nphases=1 units=km rmatrix=1.6773 xmatrix=0.932059 cmatrix=6.32285
New linecode.3ph_h-397_acsr397_acsr397_acsr2/0_wpal nphases=3 units=km rmatrix=[0.270019 |0.109951 0.264634 |0.113538 0.110747 0.271698] xmatrix=[0.695974 |0.33351 0.708729 |0.308271 0.350259 0.692021] cmatrix=[9.13606 |-2.66777 9.62226 |-2.17646 -3.15664 9.43197]
New linecode.1ph-2/0_acsrxx2_acsr nphases=1 units=km rmatrix=0.651691 xmatrix=0.881426 cmatrix=6.76998
New linecode.3ph_h-2/0_acsr2/0_acsr2/0_acsr4_acsr nphases=3 units=km rmatrix=[0.661525 |0.138324 0.654981 |0.142669 0.139294 0.663555] xmatrix=[0.915595 |0.432623 0.921023 |0.412253 0.450469 0.913932] cmatrix=[8.3452 |-2.31601 8.72099 |-1.91256 -2.71715 8.57671]
New linecode.1ph-xx4_wpal1/0_tpx nphases=1 units=km rmatrix=1.53992 xmatrix=0.762621 cmatrix=6.32285
New linecode.1ph-xx6_wpal6_wpal nphases=1 units=km rmatrix=2.50305 xmatrix=0.974922 cmatrix=6.1596
New linecode.1ph-x2_acsrx4_tpx nphases=1 units=km rmatrix=1.12603 xmatrix=0.935293 cmatrix=6.49582
New linecode.3ph_h-4_acsr4_acsr4_acsr2_wpal nphases=3 units=km rmatrix=[1.68355 |0.138291 1.67665 |0.142872 0.139313 1.68569] xmatrix=[0.885706 |0.392488 0.894001 |0.370214 0.409905 0.883149] cmatrix=[7.60098 |-1.99751 7.88811 |-1.66797 -2.32489 7.78037]
New linecode.1ph-x4_acsrx1/0_3w_cs nphases=1 units=km rmatrix=1.66186 xmatrix=0.844051 cmatrix=6.32285
New linecode.1ph-xx2_acsr4_dpx nphases=1 units=km rmatrix=1.12603 xmatrix=0.935293 cmatrix=6.49582
New linecode.1P_1/0_AXNJ_DB nphases=1 r1=0.95896 x1=0.54128 r0=0.95896 x0=0.54128 c1=25.9235 c0=25.9235 units=km basefreq=60 normamps=220 emergamps=220 faultrate=0.1 pctperm=20 repair=3
New linecode.3P_1/0_AXNJ_DB nphases=3 r1=0.55116 x1=0.20077 r0=1.3504 x0=0.42688 c1=48.6655 c0=48.6655 units=km basefreq=60 normamps=190 emergamps=190 faultrate=0.1 pctperm=20 repair=3
New linecode.750_Triplex nphases=2 units=kft rmatrix=[ 0.04974733 0.02342157 | 0.02342157 0.04974733] xmatrix=[ 0.02782436 0.00669472 | 0.00669472 0.02782436] cmatrix=[ 3.00000000 -2.40000000 | -2.40000000 3.00000000] normamps=580
New linecode.4/0Triplex nphases=2 units=kft rmatrix=[ 0.40995115 0.11809509 | 0.11809509 0.40995115] xmatrix=[ 0.16681819 0.12759250 | 0.12759250 0.16681819] cmatrix=[ 3.00000000 -2.40000000 | -2.40000000 3.00000000] normamps=156
New capacitor.CAPBank2A bus1=R20185.1 kv=7.2 kvar=300 phases=1 conn=wye
New capacitor.CAPBank2B bus1=R20185.2 kv=7.2 kvar=300 phases=1 conn=wye
New capacitor.CAPBank2C bus1=R20185.3 kv=7.2 kvar=300 phases=1 conn=wye
New capacitor.CAPBank1A bus1=R42247.1 kv=7.2 kvar=300 phases=1 conn=wye
New capacitor.CAPBank1B bus1=R42247.2 kv=7.2 kvar=300 phases=1 conn=wye
New capacitor.CAPBank1C bus1=R42247.3 kv=7.2 kvar=300 phases=1 conn=wye
New capacitor.CAPBank0A bus1=R42246.1 kv=7.2 kvar=400 phases=1 conn=wye
New capacitor.CAPBank0B bus1=R42246.2 kv=7.2 kvar=400 phases=1 conn=wye
New capacitor.CAPBank0C bus1=R42246.3 kv=7.2 kvar=400 phases=1 conn=wye
New capacitor.CAPBank3 bus1=R18242 kv=12.4711 kvar=900 conn=wye
New line.HVMV_Sub_connector bus1=_HVMV_Sub_LSB bus2=HVMV_Sub_48332 length=0.001 units=km r1=0.001 r0=0.001 x1=0.01 x0=0.01 c1=0 c0=0
New line.LN5502549-1 bus1=M1009763.2 bus2=L2673322.2 linecode=1PH-x4_ACSRx4_ACSR length=0.032176 units=km
New line.LN6259988-1 bus1=M1069148.3 bus2=L2673309.3 linecode=1PH-xx4_ACSR4_ACSR length=0.10723 units=km
New line.LN6077796-1 bus1=M1069588.2 bus2=L2804270.2 linecode=1PH-x4_ACSRx4_ACSR length=0.011446 units=km
New line.LN5835135-2 bus1=M3036164.2 bus2=L2935553.2 linecode=1PH-x4_ACSRx4_ACSR length=0.047752 units=km
New line.LN5896826-1 bus1=M1209749.2 bus2=L2748840.2 linecode=1PH-x2_ACSRx2_ACSR length=0.20318 units=km
New line.LN5714038-1 bus1=M1108264.2 bus2=M1108263.2 linecode=1PH-x4_ACSRx4_WPAL length=0.099994 units=km
New line.LN5653457-1 bus1=L3085398 bus2=M1026891 linecode=3PH_H-4_ACSR4_ACSR4_ACSR4_ACSR length=0.085708 units=km
New line.LN5835173-1 bus1=L3216367 bus2=M1069468 linecode=3PH_H-2/0_ACSR2/0_ACSR2/0_ACSR2_ACSR length=0.041347 units=km
New line.LN6321415-1 bus1=M1142800.2 bus2=M1142799.2 linecode=1PH-x2_ACSRx2_ACSR length=0.093303 units=km
New line.LN5565092-1 bus1=M1047592.3 bus2=P827512.3 linecode=1PH-xx4_ACSR4_ACSR length=0.0036562 units=km
New line.LN6073648-1 bus1=M1047339.1 bus2=P895104.1 linecode=1PH-4_WPALxx2_WPAL length=0.0077397 units=km
New line.LN5774457-1 bus1=M1026915 bus2=M1026920 linecode=3PH_H-4_ACSR2_ACSR2_ACSR4_WPAL length=0.040847 units=km
New line.LN5534966-3 bus1=N1138596.1 bus2=L3254207.1 linecode=1PH-4_ACSRxx4_ACSR length=0.024491 units=km
New line.LN5859996-1 bus1=M1069464.2 bus2=P873787.2 linecode=1PH-x2_ACSRx2_ACSR length=0.0062355 units=km
New line.LN6138610-2 bus1=N1144665 bus2=M1047515 linecode=3PH_H-4_ACSR4_ACSR4_ACSR4_WPAL length=0.027389 units=km
New line.LN6258435-3 bus1=N1137002.1 bus2=M1047707.1 linecode=1PH-2_ACSRxx2_ACSR length=0.092481 units=km
New line.LN5804790-1 bus1=L2729406.3 bus2=L2897768.3 linecode=1PH-xx4_ACSR4_ACSR length=0.19477 units=km
New line.LN6900591-14 bus1=L3649301.1 bus2=L3649302.1 linecode=1PH-2_ACSRxx2_ACSR length=0.06306 units=km
New line.LN6409873-1 bus1=L2970842.2 bus2=M1089113.2 linecode=1PH-x4_ACSRx4_ACSR length=0.071878 units=km
New line.LN6014135-1 bus1=M1047312.1 bus2=P893163.1 linecode=1PH-4_WPALxx4_ACSR length=0.0041446 units=km
New line.LN6077784-1 bus1=L2822871 bus2=M1026872 linecode=3PH_H-2/0_ACSR2/0_ACSR2/0_ACSR2_ACSR length=0.060144 units=km
New line.LN5744338-1 bus1=M1026312.2 bus2=L2973163.2 linecode=1PH-x4_ACSRx4_WPAL length=0.053487 units=km
New line.LN6991381-4 bus1=L3728038.1 bus2=L3728039.1 linecode=1PH-2_ACSRxx2_ACSR length=0.079109 units=km
New line.LN5774480-1 bus1=M1069567.2 bus2=M1069582.2 linecode=1PH-x4_ACSRx4_ACSR length=0.15296 units=km
New line.LN5986938-3 bus1=N1140830.1 bus2=L3216351.1 linecode=1PH-4_ACSRxx4_ACSR length=0.0087396 units=km
New line.LN5894230-1 bus1=L2952007.3 bus2=L2861158.3 linecode=1PH-xx4_ACSR4_ACSR length=0.12655 units=km
New line.LN5683858-3 bus1=N1140827 bus2=M1026726 linecode=3PH_H-4_ACSR4_ACSR4_ACSR4_ACSR length=0.017269 units=km
New line.LN5920279-5 bus1=L2730106 bus2=N1142099 linecode=3PH_H-397_ACSR397_ACSR397_ACSR2/0_ACSR length=0.022369 units=km
New line.LN6439600-1 bus1=M1026658.1 bus2=L3172805.1 linecode=1PH-2_ACSRxx2_ACSR length=0.10668 units=km
New line.LN5589097-1 bus1=P895112.1 bus2=L3048962.1 linecode=1PH-2_ACSRxx4_ACSR length=0.025604 units=km
New line.LN5651975-1 bus1=L2991914 bus2=M1047503 linecode=3PH_H-4_ACSR4_ACSR4_ACSR4_ACSR length=0.03565 units=km
New line.LN5865236-1 bus1=M1047751.1 bus2=L2973154.1 linecode=1PH-4_ACSRxx4_ACSR length=0.0093077 units=km
New line.LN5593232-1 bus1=L3010565.3 bus2=L2897775.3 linecode=1PH-xx2_ACSR2_ACSR length=0.14083 units=km
New line.LN5740283-1 bus1=M1125955.3 bus2=M1125957.3 linecode=1PH-xx4_WPAL4_WPAL length=0.0068261 units=km
New line.LN6106559-1 bus1=M1069640.2 bus2=L2804269.2 linecode=1PH-x4_ACSRx4_ACSR length=0.10115 units=km
New line.LN5714056-3 bus1=M1026702 bus2=N1139551 linecode=3PH_H-4_ACSR4_ACSR4_ACSR4_WPAL length=0.12873 units=km
New line.LN5985355-3 bus1=N1136355.2 bus2=L2783231.2 linecode=1PH-x4_WPALx4_WPAL length=0.072455 units=km
New line.LN5531956-1 bus1=L2748143.1 bus2=L3251854.1 linecode=1PH-2_ACSRxx2_ACSR length=0.067056 units=km
New line.LN5650048-1 bus1=M1069610.2 bus2=M1069600.2 linecode=1PH-x2_ACSRx2_ACSR length=0.06096 units=km
New line.LN6290203-1 bus1=M1069424 bus2=L2935549 linecode=3PH_H-2/0_ACSR2/0_ACSR2/0_ACSR2_ACSR length=0.088596 units=km
New line.LN6134414-1 bus1=P895089.3 bus2=L3235242.3 linecode=1PH-xx2_ACSR2_ACSR length=0.060507 units=km
New line.LN6259998-2 bus1=M1026795.3 bus2=N1140522.3 linecode=1PH-xx2_ACSR2_ACSR length=0.013558 units=km
New line.LN6078767-1 bus1=L3030199 bus2=M1125934 linecode=3PH_H-397_ACSR397_ACSR397_ACSR2/0_ACSR length=0.029295 units=km
New line.LN6017300-1 bus1=M1069189.3 bus2=L2860487.3 linecode=1PH-xx4_WPAL4_WPAL length=0.086987 units=km
New line.LN8979257-2 bus1=221-312488 bus2=M1089183 linecode=3P_1/0_AXNJ_DB length=0.013517 units=km
New line.LN81048109-1 bus1=M1108464.2 bus2=L3102286.2 linecode=1P_1/0_AXNJ_DB length=0.10746 units=km
New line.293471 bus1=F739845 bus2=293471 linecode=3PH_H-4_ACSR4_ACSR4_ACSR4_ACSR length=0.03048 units=km
New line.LN5534965-2 bus1=P827499.1 bus2=N1139254.1 linecode=1PH-4_ACSRxx4_ACSR length=0.0063761 units=km
New line.LN5655683-1 bus1=M1026657.1 bus2=M1026656.1 linecode=1PH-4_ACSRxx4_ACSR length=0.0060105 units=km
New line.LN5686247-1 bus1=M1108299.2 bus2=M1108300.2 linecode=1PH-x4_ACSRx4_ACSR length=0.0067969 units=km
New line.LN6048642-1 bus1=L3198355.2 bus2=L2805037.2 linecode=1PH-x4_WPALx4_WPAL length=0.11082 units=km
New line.LN5928544-3 bus1=N1137994.3 bus2=M1069484.3 linecode=1PH-xx4_WPAL4_ACSR length=0.056371 units=km
New line.LN6108172-1 bus1=L2860504.1 bus2=L2860493.1 linecode=1PH-2_ACSRxx2_ACSR length=0.20838 units=km
New line.LN5532754-1 bus1=M1026783 bus2=M1026780 linecode=3PH_H-4_ACSR4_ACSR4_ACSR4_WPAL length=0.017916 units=km
New line.LN5591834-1 bus1=P895111.3 bus2=L2895496.3 linecode=1PH-xx2_ACSR2_ACSR length=0.069855 units=km
New line.LN6347196-2 bus1=N1140819 bus2=M1026700 linecode=3PH_H-4_ACSR4_ACSR4_ACSR4_WPAL length=0.026931 units=km
New line.LN5532741-1 bus1=M1089173.3 bus2=L2935551.3 linecode=1PH-xx4_WPAL4_WPAL length=0.060858 units=km
New line.LN5804803-1 bus1=M1026344.1 bus2=M1026364.1 linecode=1PH-2_ACSRxx2_ACSR length=0.29465 units=km
New line.LN6169248-1 bus1=L2879070 bus2=L3216345 linecode=3PH_H-2/0_ACSR2/0_ACSR2/0_ACSR2_ACSR length=0.089301 units=km
New line.LN5532786-2 bus1=M1069428.2 bus2=N1139257.2 linecode=1PH-x2_ACSRx1/0_TPX length=0.016477 units=km
New line.LN5744339-1 bus1=L2991919.1 bus2=M1026361.1 linecode=1PH-4_WPALxx4_ACSR length=0.085291 units=km
New line.LN5531255-3 bus1=N1147857.1 bus2=M1009742.1 linecode=1PH-4_ACSRxx4_ACSR length=0.054753 units=km
New line.LN5926308-2 bus1=Q14412 bus2=M1047325 linecode=3PH_H-4_ACSR4_ACSR4_ACSR4_ACSR length=0.033945 units=km
New line.LN5683856-3 bus1=N1139263.1 bus2=L3048227.1 linecode=1PH-4_ACSRxx4_ACSR length=0.025987 units=km
New line.LN6171502-1 bus1=P827506.1 bus2=M1069469.1 linecode=1PH-4_ACSRxx4_ACSR length=0.0070502 units=km
New line.LN5593228-1 bus1=M1027019.2 bus2=L2785522.2 linecode=1PH-x2_ACSRx2_ACSR length=0.060391 units=km
New line.LN6380800-1 bus1=L3216338.2 bus2=L2973146.2 linecode=1PH-x2_ACSRx2_ACSR length=0.058581 units=km
New line.LN6199525-2 bus1=M3037452.1 bus2=L2973164.1 linecode=1PH-4_ACSRxx4_ACSR length=0.071452 units=km
New line.LN5772710-2 bus1=L3120376.1 bus2=M1026925.1 linecode=1PH-4_ACSRxx4_WPAL length=0.089333 units=km
New line.LN8961760-1 bus1=M1047612.3 bus2=P828360.3 linecode=1P_1/0_AXNJ_DB length=0.0053716 units=km
New line.LN6047556-1 bus1=M1089195.3 bus2=L3141393.3 linecode=1PH-xx2_ACSR2_ACSR length=0.11273 units=km
New line.LN6138603-1 bus1=M1026946.2 bus2=M1026940.2 linecode=1PH-x4_ACSRx4_ACSR length=0.12857 units=km
New line.LN6108139-1 bus1=M1047471.2 bus2=L3216349.2 linecode=1PH-x2_ACSRx2_ACSR length=0.0184 units=km
New line.LN6388581-2 bus1=M1047401.1 bus2=L2748132.1 linecode=1PH-4_ACSRxx4_ACSR length=0.056056 units=km
New line.LN5774460-1 bus1=L3122820.1 bus2=L3141398.1 linecode=1PH-2_ACSRxx2_ACSR length=0.059409 units=km
New line.LN5624387-1 bus1=M1108360.3 bus2=L3048968.3 linecode=1PH-xx4_ACSR4_ACSR length=0.054977 units=km
New line.LN6137087-1 bus1=L2801950.3 bus2=M1069224.3 linecode=1PH-xx4_ACSR1/0_TPX length=0.032899 units=km
New line.LN6077809-1 bus1=L2766746.3 bus2=M1027073.3 linecode=1PH-xx2_ACSR2_ACSR length=0.11048 units=km
New line.LN6440079-1 bus1=L2895496.3 bus2=M1142873.3 linecode=1PH-xx2_ACSR2_ACSR length=0.050561 units=km
New line.LN5804794-1 bus1=M1069181.1 bus2=L2973151.1 linecode=1PH-4_ACSRxx4_ACSR length=0.075433 units=km
New line.LN5654484-1 bus1=L3179682.3 bus2=L2786274.3 linecode=1PH-xx4_ACSR4_ACSR length=0.027729 units=km
New line.LN5774465-1 bus1=L3066816.1 bus2=M1026667.1 linecode=1PH-2_ACSRxx2_ACSR length=0.12146 units=km
New line.LN5473349-1 bus1=M1108529 bus2=M1108532 linecode=3PH_H-397_ACSR397_ACSR397_ACSR2/0_ACSR length=0.024809 units=km
New line.LN6169253-1 bus1=L2766723.1 bus2=L3122822.1 linecode=1PH-4_ACSRxx4_ACSR length=0.057158 units=km
New line.LN6350536-1 bus1=L2673312.1 bus2=L3235247.1 linecode=1PH-2_ACSRxx2_ACSR length=0.16625 units=km
New line.LN6048523-1 bus1=M1166391.3 bus2=L3254873.3 linecode=1PH-xx4_WPAL4_ACSR length=0.10617 units=km
New line.LN5594152-1 bus1=L2861157.3 bus2=P901951.3 linecode=1PH-xx2_ACSR2_ACSR length=0.12135 units=km
New line.LN5865248-1 bus1=M1047346 bus2=M1047345 linecode=3PH_H-4_WPAL4_WPAL4_WPAL4_ACSR length=0.043146 units=km
New line.LN6046143-1 bus1=L2989596.2 bus2=L2822873.2 linecode=1PH-x4_WPALx4_ACSR length=0.088615 units=km
New line.LN5803287-1 bus1=M1108328.3 bus2=L2875754.3 linecode=1PH-xx2_ACSR2_ACSR length=0.021267 units=km
New line.LN5589094-1 bus1=L2786204.3 bus2=M1209819.3 linecode=1PH-xx4_ACSR4_ACSR length=0.072044 units=km
New line.LN5954983-1 bus1=P901972.1 bus2=M1009726.1 linecode=1PH-4_WPALxx4_WPAL length=0.090083 units=km
New line.LN5924696-2 bus1=M1047702.1 bus2=N1137001.1 linecode=1PH-2_ACSRxx2_ACSR length=0.042663 units=km
New line.LN6506311-4 bus1=L2767340 bus2=M3037449 linecode=3PH_H-4_WPAL4_WPAL4_WPAL4_WPAL length=0.0019375 units=km
New line.LN5653493-1 bus1=M1047457.2 bus2=L2710546.2 linecode=1PH-x2_ACSRx2_ACSR length=0.04012 units=km
New line.LN5684836-1 bus1=L2674027 bus2=L2692633 linecode=3PH_H-397_ACSR397_ACSR397_ACSR2/0_ACSR length=0.067882 units=km
New line.LN5715016-3 bus1=N1142108.1 bus2=L2674051.1 linecode=1PH-2_ACSRxx2_ACSR length=0.073679 units=km
New line.LN6138614-1 bus1=M1069135 bus2=R18242 linecode=3PH_H-4_WPAL4_WPAL4_WPAL4_WPAL length=0.07099 units=km
New line.LN6077781-2 bus1=M1047534 bus2=N1136663 linecode=3PH_H-2/0_ACSR2/0_ACSR2/0_ACSR2_ACSR length=0.11474 units=km
New line.LN5675121-1 bus1=M1108508.3 bus2=L3097861.3 linecode=1PH-xx2_ACSR2_ACSR length=0.09144 units=km
New line.LN5773046-1 bus1=M1069560.2 bus2=M1069567.2 linecode=1PH-x4_ACSRx4_ACSR length=0.081428 units=km
New line.LN6380809-2 bus1=L2973153 bus2=N1136998 linecode=3PH_H-4_WPAL4_WPAL4_WPAL4_WPAL length=0.010529 units=km
New line.LN6018326-1 bus1=L2898515.3 bus2=M1166387.3 linecode=1PH-xx4_ACSR4_ACSR length=0.059606 units=km
New line.LN5472356-1 bus1=M1047442.2 bus2=L3235250.2 linecode=1PH-x4_WPALx4_WPAL length=0.0645 units=km
New line.LN6139641-1 bus1=M1142871 bus2=M1142874 linecode=3PH_H-397_ACSR397_ACSR397_ACSR2/0_ACSR length=0.038153 units=km
New line.LN6018341-1 bus1=L2955081 bus2=M1108315 linecode=3PH_H-397_ACSR397_ACSR397_ACSR2/0_ACSR length=0.094685 units=km
New line.LN6017302-1 bus1=L2973162 bus2=M1026333 linecode=3PH_H-4_WPAL4_WPAL4_WPAL4_ACSR length=0.053151 units=km
New line.LN6199505-1 bus1=M1009832.2 bus2=L2860479.2 linecode=1PH-x4_ACSRx4_ACSR length=0.036047 units=km
New line.LN5682327-1 bus1=M1026854.1 bus2=P901894.1 linecode=1PH-4_ACSRxx4_ACSR length=0.0059246 units=km
New line.LN6290243-1 bus1=M1026485.2 bus2=M1026492.2 linecode=1PH-x2_ACSRx2_ACSR length=0.065907 units=km
New line.X8223_48332_sw bus1=D6413567-3_INT bus2=E182724 length=0.001 switch=y
New line.LN6413567-3 bus1=N1139541 bus2=D6413567-3_INT linecode=3PH_H-4_ACSR4_ACSR4_ACSR4_WPAL length=0.014967 units=km
New line.LN5591731-3 bus1=M4122658 bus2=L2933135 linecode=3PH_H-397_ACSR397_ACSR397_ACSR2/0_ACSR length=0.0016692 units=km
New line.LN5653470-1 bus1=M1026702 bus2=L2729414 linecode=3PH_H-2_ACSR2_ACSR2_ACSR2_ACSR length=0.049898 units=km
New line.LN6017316-1 bus1=L2729430.2 bus2=L2766742.2 linecode=1PH-x4_ACSRx4_ACSR length=0.10864 units=km
New line.LN5926299-1 bus1=M1026972.2 bus2=L2860483.2 linecode=1PH-x2_ACSRx2_ACSR length=0.060677 units=km
New line.LN5683831-1 bus1=L2860490 bus2=L3104134 linecode=3PH_H-4_ACSR4_ACSR4_ACSR4_ACSR length=0.063358 units=km
New line.LN6352700-1 bus1=M1089144.1 bus2=P827522.1 linecode=1PH-2_ACSRxx2_ACSR length=0.0025917 units=km
New line.LN6047570-1 bus1=M1089118.1 bus2=L3048208.1 linecode=1PH-4_ACSRxx4_WPAL length=0.045297 units=km
New line.LN5624342-1 bus1=M1108505 bus2=L2955047 linecode=3PH_H-397_ACSR397_ACSR397_ACSR2/0_ACSR length=0.054561 units=km
New line.LN6259992-1 bus1=M1089148.1 bus2=L2766721.1 linecode=1PH-4_ACSRxx1/0_TPX length=0.048405 units=km
New line.LN5841919-1 bus1=M1026745.2 bus2=L3029183.2 linecode=1PH-x2_ACSRx2_ACSR length=0.091017 units=km
New line.LN6380811-1 bus1=L2710512.2 bus2=M1047828.2 linecode=1PH-x4_ACSRx4_ACSR length=0.14522 units=km
New line.LN5683832-1 bus1=M1047342.1 bus2=L3197645.1 linecode=1PH-2_ACSRxx2_ACSR length=0.073698 units=km
New line.LN6077778-1 bus1=M1069192.1 bus2=L3235253.1 linecode=1PH-2_ACSRxx2_ACSR length=0.081542 units=km
New line.LN5561442-2 bus1=L3214071 bus2=M1125952 linecode=3PH_H-397_ACSR397_ACSR397_ACSR2/0_ACSR length=0.053927 units=km
New line.LN6259983-1 bus1=M1027101.2 bus2=L2860480.2 linecode=1PH-x2_ACSRx2_ACSR length=0.16391 units=km
New line.LN5865244-1 bus1=L2710517.1 bus2=M1026646.1 linecode=1PH-4_ACSRxx4_ACSR length=0.048809 units=km
New line.LN6350555-1 bus1=M1069662.2 bus2=L2935547.2 linecode=1PH-x2_ACSRx2_ACSR length=0.061176 units=km
New line.LN5714039-1 bus1=M1026931.1 bus2=L3216336.1 linecode=1PH-4_ACSRxx4_ACSR length=0.049186 units=km
New line.LN5889821-1 bus1=L3142049 bus2=M1108493 linecode=3PH_H-397_ACSR397_ACSR397_ACSR2/0_ACSR length=0.08467 units=km
New line.LN5804791-1 bus1=M1069169 bus2=L3010556 linecode=3PH_H-4_ACSR4_ACSR4_ACSR4_WPAL length=0.073356 units=km
New line.LN5653486-1 bus1=L2991933.3 bus2=L3122837.3 linecode=1PH-xx4_ACSR4_ACSR length=0.083273 units=km
New line.LN5926286-1 bus1=L3216336.1 bus2=L2691936.1 linecode=1PH-4_ACSRxx4_ACSR length=0.066949 units=km
New line.LN6318859-1 bus1=L2897772.1 bus2=L3101814.1 linecode=1PH-4_ACSRxx4_ACSR length=0.056445 units=km
New line.LN5926316-1 bus1=L2766732.2 bus2=M1026485.2 linecode=1PH-x2_ACSRx2_ACSR length=0.013733 units=km
New line.LN5591703-1 bus1=L2804269.2 bus2=L2989564.2 linecode=1PH-x4_ACSRx4_ACSR length=0.062073 units=km
New line.LN5531333-1 bus1=M1126016.1 bus2=L3120534.1 linecode=1PH-4_ACSRxx4_ACSR length=0.035539 units=km
New line.LN6047581-1 bus1=M1026330.2 bus2=L2766726.2 linecode=1PH-x4_WPALx4_WPAL length=0.030088 units=km
New line.LN6349077-1 bus1=P901912.2 bus2=L3195365.2 linecode=1PH-x2_ACSRx2_ACSR length=0.037424 units=km
New line.LN6350574-1 bus1=M1108381 bus2=L3254237 linecode=3PH_H-4_ACSR2_ACSR2_ACSR4_ACSR length=0.075955 units=km
New line.LN6320343-1 bus1=L2804262.1 bus2=L2841639.1 linecode=1PH-4_ACSRxx4_ACSR length=0.074677 units=km
New line.LN81048100-5 bus1=N1230123.2 bus2=L2708744.2 linecode=1P_1/0_AXNJ_DB length=0.055803 units=km
New line.LN6348946-1 bus1=M1069519.2 bus2=P901927.2 linecode=1PH-x2_ACSRx2_ACSR length=0.0082387 units=km
New line.LN5744351-1 bus1=L2897790.3 bus2=L2935566.3 linecode=1PH-xx2_ACSR2_ACSR length=0.070434 units=km
New line.LN5472342-1 bus1=M1026931.1 bus2=L3216337.1 linecode=1PH-2_ACSRxx2_ACSR length=0.056331 units=km
New line.LN5621849-1 bus1=P901931.3 bus2=M1069548.3 linecode=1PH-xx2_ACSR2_ACSR length=0.0048549 units=km
New line.LN6379375-1 bus1=M1010013.1 bus2=L3120503.1 linecode=1PH-2_ACSRxx2_ACSR length=0.054829 units=km
New line.LN6028890-1 bus1=M1089145 bus2=L3215385 linecode=3PH_H-2_ACSR2_ACSR2_ACSR2_ACSR length=0.035966 units=km
New line.LN6380822-1 bus1=M1026854 bus2=M1026852 linecode=3PH_H-2/0_ACSR2/0_ACSR2/0_ACSR2_ACSR length=0.13123 units=km
New line.LN5835131-1 bus1=L2935549 bus2=M1069420 linecode=3PH_H-2/0_ACSR2/0_ACSR2/0_ACSR2_ACSR length=0.096022 units=km
New line.LN5803262-7 bus1=L3157708.3 bus2=N1137991.3 linecode=1PH-xx4_ACSR4_ACSR length=0.014132 units=km
New line.LN81048089-1 bus1=M1108413.1 bus2=M1108460.1 linecode=1P_1/0_AXNJ_DB length=0.1461 units=km
New line.LN6201699-1 bus1=P827532.1 bus2=M1047326.1 linecode=1PH-2_ACSRxx2_ACSR length=0.0072927 units=km
New line.LN5746548-1 bus1=E182732 bus2=M1026760 linecode=3PH_H-4_ACSR4_ACSR4_ACSR4_ACSR length=0.0091804 units=km
New line.LN5835174-1 bus1=L3048205.3 bus2=M1108361.3 linecode=1PH-xx4_ACSR4_WPAL length=0.19593 units=km
New line.LN6505947-4 bus1=M3036169.1 bus2=L2673317.1 linecode=1PH-4_ACSRxx4_WPAL length=0.0025981 units=km
New line.LN5683833-1 bus1=L3178981.2 bus2=M1047368.2 linecode=1PH-x4_ACSRx4_ACSR length=0.2168 units=km
New line.LN5561439-3 bus1=M1069519 bus2=N1136354 linecode=3PH_H-397_ACSR397_ACSR397_ACSR2/0_ACSR length=0.15126 units=km
New line.LN6109190-1 bus1=L2879794.1 bus2=M1142811.1 linecode=1PH-4_ACSRxx4_ACSR length=0.033756 units=km
New line.LN6258435-2 bus1=M1047702.1 bus2=N1137002.1 linecode=1PH-2_ACSRxx2_ACSR length=0.018939 units=km
New line.LN5804819-1 bus1=M1069565.2 bus2=L2785536.2 linecode=1PH-x4_ACSRx4_ACSR length=0.18501 units=km
New line.LN5593215-1 bus1=L3104114.2 bus2=M1009824.2 linecode=1PH-x4_WPALx4_WPAL length=0.055545 units=km
New line.LN5833717-1 bus1=L2745848 bus2=L2673308 linecode=3PH_H-2/0_ACSR2/0_ACSR2/0_ACSR2_ACSR length=0.057554 units=km
New line.LN6199557-1 bus1=L2673308 bus2=L2991939 linecode=3PH_H-2/0_ACSR2/0_ACSR2/0_ACSR2_ACSR length=0.11261 units=km
New line.LN5744332-1 bus1=L2916606.3 bus2=L2822864.3 linecode=1PH-xx4_ACSR4_ACSR length=0.061698 units=km
New line.LN5558790-1 bus1=M1142851 bus2=196-31070 linecode=3PH_H-397_ACSR397_ACSR397_ACSR2/0_ACSR length=0.013856 units=km
New line.LN6078692-1 bus1=M1209822.3 bus2=M1209823.3 linecode=1PH-xx4_ACSR4_ACSR length=0.056983 units=km
New line.LN5956482-1 bus1=M1069550.2 bus2=M1069551.2 linecode=1PH-x4_WPALx4_WPAL length=0.0041484 units=km
New line.LN5593225-1 bus1=L2860483.2 bus2=L3141397.2 linecode=1PH-x2_ACSRx2_ACSR length=0.076051 units=km
New line.LN6900591-26 bus1=L3649299.1 bus2=M3772794.1 linecode=1PH-2_ACSRxx2_ACSR length=0.003879 units=km
New line.LN5952393-1 bus1=P895106.2 bus2=L3048887.2 linecode=1PH-x4_ACSRx4_ACSR length=0.040161 units=km
New line.LN6350531-1 bus1=M1047824.2 bus2=M1047834.2 linecode=1PH-x4_ACSRx4_ACSR length=0.41575 units=km
New line.LN5965099-10 bus1=M1069350 bus2=N1144668 linecode=3PH_H-2/0_ACSR2/0_ACSR2/0_ACSR2_ACSR length=0.026748 units=km
New line.LN6047568-1 bus1=L2879072.2 bus2=M1047441.2 linecode=1PH-x4_WPALx4_ACSR length=0.23035 units=km
New line.LN5926292-1 bus1=M1108274.2 bus2=M1108269.2 linecode=1PH-x2_ACSRx2_ACSR length=0.061288 units=km
New line.LN6380806-1 bus1=L3235244.1 bus2=M1069398.1 linecode=1PH-4_ACSRxx4_ACSR length=0.062896 units=km
New line.LN6341781-3 bus1=N1147862.1 bus2=L2685805.1 linecode=1PH-2_ACSRxx2_ACSR length=0.089366 units=km
New line.LN8979367-1 bus1=M1069247.1 bus2=M1069248.1 linecode=1P_1/0_AXNJ_DB length=0.1228 units=km
New line.LN6018340-1 bus1=L2786273.2 bus2=M1108278.2 linecode=1PH-x4_ACSRx4_ACSR length=0.10799 units=km
New line.LN6380847-1 bus1=L3254238 bus2=M1047303 linecode=3PH_H-4_ACSR4_ACSR4_ACSR4_ACSR length=0.099314 units=km
New line.LN8961797-1 bus1=M1047633.3 bus2=L2897554.3 linecode=1P_1/0_AXNJ_DB length=0.17983 units=km
New line.LN6077797-1 bus1=M1069627.2 bus2=L2897791.2 linecode=1PH-x4_ACSRx4_ACSR length=0.13855 units=km
New line.LN6077773-1 bus1=M1089097.2 bus2=M1108270.2 linecode=1PH-x4_ACSRx4_WPAL length=0.083123 units=km
New line.LN5837496-4 bus1=N1142101.1 bus2=L2936214.1 linecode=1PH-2_ACSRxx2_ACSR length=0.036947 units=km
New line.LN5623392-1 bus1=L3066810.3 bus2=L2897769.3 linecode=1PH-xx4_ACSR4_ACSR length=0.12964 units=km
New line.LN5624380-1 bus1=M1209758.2 bus2=M1209753.2 linecode=1PH-x2_ACSRx2_ACSR length=0.12109 units=km
New line.LN6422809-2 bus1=M1047528 bus2=L2858166 linecode=3PH_H-2/0_ACSR2/0_ACSR2/0_ACSR2_ACSR length=0.0048333 units=km
New line.LN5799561-1 bus1=M1142843 bus2=L3081380 linecode=3PH_H-397_ACSR397_ACSR397_ACSR2/0_ACSR length=0.11059 units=km
New line.LN6229818-1 bus1=L2804272.2 bus2=L2841641.2 linecode=1PH-x2_ACSRx2_ACSR length=0.079463 units=km
New line.LN5593230-1 bus1=M1069393.2 bus2=M1069408.2 linecode=1PH-x4_ACSRx4_ACSR length=0.069802 units=km
New line.LN5563901-3 bus1=N1142104 bus2=M1108500 linecode=3PH_H-397_ACSR397_ACSR397_ACSR2/0_ACSR length=0.045482 units=km
New line.LN6320339-1 bus1=L3216348.1 bus2=L2841627.1 linecode=1PH-4_WPALxx4_WPAL length=0.18832 units=km
New line.LN5986927-1 bus1=M1026925.1 bus2=L2916599.1 linecode=1PH-4_ACSRxx4_ACSR length=0.015577 units=km
New line.LN6047567-1 bus1=M1047447.2 bus2=L2954349.2 linecode=1PH-x4_WPALx4_WPAL length=0.053455 units=km
New line.LN5714047-1 bus1=L3235246.2 bus2=L2710512.2 linecode=1PH-x4_ACSRx4_ACSR length=0.077202 units=km
New line.LN5563934-1 bus1=M1125911.2 bus2=L2711224.2 linecode=1PH-x4_ACSRx4_ACSR length=0.10544 units=km
New line.LN6169249-3 bus1=N1147863.3 bus2=L3122817.3 linecode=1PH-xx4_ACSR4_ACSR length=0.0043955 units=km
New line.LN6230800-1 bus1=M1186061.2 bus2=L2861223.2 linecode=1PH-x4_ACSRx4_ACSR length=0.036471 units=km
...
New transformer.T21396254A phases=1 windings=3 wdg=1 bus=L2804253.1 kv=7.2 kva=15 wdg=2 bus=X2804253A.1.0 kv=0.12 kva=15 wdg=3 bus=X2804253A.0.2 kv=0.12 kva=15 %imag=0.5 %rs=[0.6 1.2 1.2] %noloadloss=0.2 xhl=2.04 xht=2.04 xlt=1.36
New transformer.T5321859B phases=1 windings=3 wdg=1 bus=L3254213.2 kv=7.2 kva=25 wdg=2 bus=X3254213B.1.0 kv=0.12 kva=25 wdg=3 bus=X3254213B.0.2 kv=0.12 kva=25 %imag=0.5 %rs=[0.6 1.2 1.2] %noloadloss=0.2 xhl=2.04 xht=2.04 xlt=1.36
New transformer.T5391741B phases=1 windings=3 wdg=1 bus=L3216339.2 kv=7.2 kva=25 wdg=2 bus=X3216339B.1.0 kv=0.12 kva=25 wdg=3 bus=X3216339B.0.2 kv=0.12 kva=25 %imag=0.5 %rs=[0.6 1.2 1.2] %noloadloss=0.2 xhl=2.04 xht=2.04 xlt=1.36
New transformer.T5293672A phases=1 windings=3 wdg=1 bus=L2954355.1 kv=7.2 kva=15 wdg=2 bus=X2954355A.1.0 kv=0.12 kva=15 wdg=3 bus=X2954355A.0.2 kv=0.12 kva=15 %imag=0.5 %rs=[0.6 1.2 1.2] %noloadloss=0.2 xhl=2.04 xht=2.04 xlt=1.36
New transformer.T21474711C phases=1 windings=3 wdg=1 bus=L2861197.3 kv=7.2 kva=15 wdg=2 bus=X2861197C.1.0 kv=0.12 kva=15 wdg=3 bus=X2861197C.0.2 kv=0.12 kva=15 %imag=0.5 %rs=[0.6 1.2 1.2] %noloadloss=0.2 xhl=2.04 xht=2.04 xlt=1.36
New transformer.T5260488A phases=1 windings=3 wdg=1 bus=L2842379.1 kv=7.2 kva=37.5 wdg=2 bus=X2842379A.1.0 kv=0.12 kva=37.5 wdg=3 bus=X2842379A.0.2 kv=0.12 kva=37.5 %imag=0.5 %rs=[0.6 1.2 1.2] %noloadloss=0.2 xhl=2.04 xht=2.04 xlt=1.36
New transformer.T5391758B phases=1 windings=3 wdg=1 bus=L2841636.2 kv=7.2 kva=15 wdg=2 bus=X2841636B.1.0 kv=0.12 kva=15 wdg=3 bus=X2841636B.0.2 kv=0.12 kva=15 %imag=0.5 %rs=[0.6 1.2 1.2] %noloadloss=0.2 xhl=2.04 xht=2.04 xlt=1.36
New transformer.T228091193A phases=1 windings=3 wdg=1 bus=L3047289.1 kv=7.2 kva=50 wdg=2 bus=X3047289A.1.0 kv=0.12 kva=50 wdg=3 bus=X3047289A.0.2 kv=0.12 kva=50 %imag=0.5 %rs=[0.6 1.2 1.2] %noloadloss=0.2 xhl=2.04 xht=2.04 xlt=1.36
New transformer.T228091193B phases=1 windings=3 wdg=1 bus=L3047289.2 kv=7.2 kva=50 wdg=2 bus=X3047289B.1.0 kv=0.12 kva=50 wdg=3 bus=X3047289B.0.2 kv=0.12 kva=50 %imag=0.5 %rs=[0.6 1.2 1.2] %noloadloss=0.2 xhl=2.04 xht=2.04 xlt=1.36
New transformer.T228091193C phases=1 windings=3 wdg=1 bus=L3047289.3 kv=7.2 kva=50 wdg=2 bus=X3047289C.1.0 kv=0.12 kva=50 wdg=3 bus=X3047289C.0.2 kv=0.12 kva=50 %imag=0.5 %rs=[0.6 1.2 1.2] %noloadloss=0.2 xhl=2.04 xht=2.04 xlt=1.36
New transformer.T5302862C phases=1 windings=3 wdg=1 bus=L3085399.3 kv=7.2 kva=15 wdg=2 bus=X3085399C.1.0 kv=0.12 kva=15 wdg=3 bus=X3085399C.0.2 kv=0.12 kva=15 %imag=0.5 %rs=[0.6 1.2 1.2] %noloadloss=0.2 xhl=2.04 xht=2.04 xlt=1.36
New transformer.T21236413B phases=1 windings=3 wdg=1 bus=L3085391.2 kv=7.2 kva=50 wdg=2 bus=X3085391B.1.0 kv=0.12 kva=50 wdg=3 bus=X3085391B.0.2 kv=0.12 kva=50 %imag=0.5 %rs=[0.6 1.2 1.2] %noloadloss=0.2 xhl=2.04 xht=2.04 xlt=1.36
New transformer.T5302468A phases=1 windings=3 wdg=1 bus=L2897778.1 kv=7.2 kva=10 wdg=2 bus=X2897778A.1.0 kv=0.12 kva=10 wdg=3 bus=X2897778A.0.2 kv=0.12 kva=10 %imag=0.5 %rs=[0.6 1.2 1.2] %noloadloss=0.2 xhl=2.04 xht=2.04 xlt=1.36
New transformer.T5294787A phases=1 windings=3 wdg=1 bus=L3197647.1 kv=7.2 kva=10 wdg=2 bus=X3197647A.1.0 kv=0.12 kva=10 wdg=3 bus=X3197647A.0.2 kv=0.12 kva=10 %imag=0.5 %rs=[0.6 1.2 1.2] %noloadloss=0.2 xhl=2.04 xht=2.04 xlt=1.36
New transformer.T5157715B phases=1 windings=3 wdg=1 bus=L2936275.2 kv=7.2 kva=10 wdg=2 bus=X2936275B.1.0 kv=0.12 kva=10 wdg=3 bus=X2936275B.0.2 kv=0.12 kva=10 %imag=0.5 %rs=[0.6 1.2 1.2] %noloadloss=0.2 xhl=2.04 xht=2.04 xlt=1.36
New transformer.T5355768B phases=1 windings=3 wdg=1 bus=L2729408.2 kv=7.2 kva=25 wdg=2 bus=X2729408B.1.0 kv=0.12 kva=25 wdg=3 bus=X2729408B.0.2 kv=0.12 kva=25 %imag=0.5 %rs=[0.6 1.2 1.2] %noloadloss=0.2 xhl=2.04 xht=2.04 xlt=1.36
New transformer.T5138562A phases=1 windings=3 wdg=1 bus=L2673310.1 kv=7.2 kva=25 wdg=2 bus=X2673310A.1.0 kv=0.12 kva=25 wdg=3 bus=X2673310A.0.2 kv=0.12 kva=25 %imag=0.5 %rs=[0.6 1.2 1.2] %noloadloss=0.2 xhl=2.04 xht=2.04 xlt=1.36
New transformer.T5355934A phases=1 windings=3 wdg=1 bus=L3048212.1 kv=7.2 kva=10 wdg=2 bus=X3048212A.1.0 kv=0.12 kva=10 wdg=3 bus=X3048212A.0.2 kv=0.12 kva=10 %imag=0.5 %rs=[0.6 1.2 1.2] %noloadloss=0.2 xhl=2.04 xht=2.04 xlt=1.36
New transformer.T5293483A phases=1 windings=3 wdg=1 bus=L3104133.1 kv=7.2 kva=25 wdg=2 bus=X3104133A.1.0 kv=0.12 kva=25 wdg=3 bus=X3104133A.0.2 kv=0.12 kva=25 %imag=0.5 %rs=[0.6 1.2 1.2] %noloadloss=0.2 xhl=2.04 xht=2.04 xlt=1.36
New transformer.T21399762A phases=1 windings=3 wdg=1 bus=L2879087.1 kv=7.2 kva=15 wdg=2 bus=X2879087A.1.0 kv=0.12 kva=15 wdg=3 bus=X2879087A.0.2 kv=0.12 kva=15 %imag=0.5 %rs=[0.6 1.2 1.2] %noloadloss=0.2 xhl=2.04 xht=2.04 xlt=1.36
New transformer.T5138650C phases=1 windings=3 wdg=1 bus=L2710510.3 kv=7.2 kva=10 wdg=2 bus=X2710510C.1.0 kv=0.12 kva=10 wdg=3 bus=X2710510C.0.2 kv=0.12 kva=10 %imag=0.5 %rs=[0.6 1.2 1.2] %noloadloss=0.2 xhl=2.04 xht=2.04 xlt=1.36
New transformer.T5323242B phases=1 windings=3 wdg=1 bus=L3122810.2 kv=7.2 kva=25 wdg=2 bus=X3122810B.1.0 kv=0.12 kva=25 wdg=3 bus=X3122810B.0.2 kv=0.12 kva=25 %imag=0.5 %rs=[0.6 1.2 1.2] %noloadloss=0.2 xhl=2.04 xht=2.04 xlt=1.36
New transformer.T28127090C phases=1 windings=3 wdg=1 bus=L2954352.3 kv=7.2 kva=25 wdg=2 bus=X2954352C.1.0 kv=0.12 kva=25 wdg=3 bus=X2954352C.0.2 kv=0.12 kva=25 %imag=0.5 %rs=[0.6 1.2 1.2] %noloadloss=0.2 xhl=2.04 xht=2.04 xlt=1.36
New transformer.T5138769A phases=1 windings=3 wdg=1 bus=L2729411.1 kv=7.2 kva=10 wdg=2 bus=X2729411A.1.0 kv=0.12 kva=10 wdg=3 bus=X2729411A.0.2 kv=0.12 kva=10 %imag=0.5 %rs=[0.6 1.2 1.2] %noloadloss=0.2 xhl=2.04 xht=2.04 xlt=1.36
New transformer.T5338896A phases=1 windings=3 wdg=1 bus=L3178971.1 kv=7.2 kva=15 wdg=2 bus=X3178971A.1.0 kv=0.12 kva=15 wdg=3 bus=X3178971A.0.2 kv=0.12 kva=15 %imag=0.5 %rs=[0.6 1.2 1.2] %noloadloss=0.2 xhl=2.04 xht=2.04 xlt=1.36
New transformer.T5355586B phases=1 windings=3 wdg=1 bus=L3254234.2 kv=7.2 kva=25 wdg=2 bus=X3254234B.1.0 kv=0.12 kva=25 wdg=3 bus=X3254234B.0.2 kv=0.12 kva=25 %imag=0.5 %rs=[0.6 1.2 1.2] %noloadloss=0.2 xhl=2.04 xht=2.04 xlt=1.36
New transformer.T5293471A phases=1 windings=3 wdg=1 bus=293471.1 kv=7.2 kva=25 wdg=2 bus=X_293471A.1.0 kv=0.12 kva=25 wdg=3 bus=X_293471A.0.2 kv=0.12 kva=25 %imag=0.5 %rs=[0.6 1.2 1.2] %noloadloss=0.2 xhl=2.04 xht=2.04 xlt=1.36
New transformer.T5293471B phases=1 windings=3 wdg=1 bus=293471.2 kv=7.2 kva=25 wdg=2 bus=X_293471B.1.0 kv=0.12 kva=25 wdg=3 bus=X_293471B.0.2 kv=0.12 kva=25 %imag=0.5 %rs=[0.6 1.2 1.2] %noloadloss=0.2 xhl=2.04 xht=2.04 xlt=1.36
New transformer.T5293471C phases=1 windings=3 wdg=1 bus=293471.3 kv=7.2 kva=25 wdg=2 bus=X_293471C.1.0 kv=0.12 kva=25 wdg=3 bus=X_293471C.0.2 kv=0.12 kva=25 %imag=0.5 %rs=[0.6 1.2 1.2] %noloadloss=0.2 xhl=2.04 xht=2.04 xlt=1.36
New transformer.T5338954A phases=1 windings=3 wdg=1 bus=L2860482.1 kv=7.2 kva=25 wdg=2 bus=X2860482A.1.0 kv=0.12 kva=25 wdg=3 bus=X2860482A.0.2 kv=0.12 kva=25 %imag=0.5 %rs=[0.6 1.2 1.2] %noloadloss=0.2 xhl=2.04 xht=2.04 xlt=1.36
New transformer.T21459629C phases=1 windings=3 wdg=1 bus=L2763811.3 kv=7.2 kva=75 wdg=2 bus=X2763811C.1.0 kv=0.12 kva=75 wdg=3 bus=X2763811C.0.2 kv=0.12 kva=75 %imag=0.5 %rs=[0.6 1.2 1.2] %noloadloss=0.2 xhl=2.04 xht=2.04 xlt=1.36
New transformer.T5260562A phases=1 windings=3 wdg=1 bus=L3251799.1 kv=7.2 kva=37.5 wdg=2 bus=X3251799A.1.0 kv=0.12 kva=37.5 wdg=3 bus=X3251799A.0.2 kv=0.12 kva=37.5 %imag=0.5 %rs=[0.6 1.2 1.2] %noloadloss=0.2 xhl=2.04 xht=2.04 xlt=1.36
New transformer.T21393486C phases=1 windings=3 wdg=1 bus=L2898526.3 kv=7.2 kva=15 wdg=2 bus=X2898526C.1.0 kv=0.12 kva=15 wdg=3 bus=X2898526C.0.2 kv=0.12 kva=15 %imag=0.5 %rs=[0.6 1.2 1.2] %noloadloss=0.2 xhl=2.04 xht=2.04 xlt=1.36
New transformer.T5293518B phases=1 windings=3 wdg=1 bus=L2897780.2 kv=7.2 kva=25 wdg=2 bus=X2897780B.1.0 kv=0.12 kva=25 wdg=3 bus=X2897780B.0.2 kv=0.12 kva=25 %imag=0.5 %rs=[0.6 1.2 1.2] %noloadloss=0.2 xhl=2.04 xht=2.04 xlt=1.36
New transformer.T226195194C phases=1 windings=3 wdg=1 bus=L3027124.3 kv=7.2 kva=25 wdg=2 bus=X3027124C.1.0 kv=0.12 kva=25 wdg=3 bus=X3027124C.0.2 kv=0.12 kva=25 %imag=0.5 %rs=[0.6 1.2 1.2] %noloadloss=0.2 xhl=2.04 xht=2.04 xlt=1.36
New transformer.T21383494B phases=1 windings=3 wdg=1 bus=L2954361.2 kv=7.2 kva=25 wdg=2 bus=X2954361B.1.0 kv=0.12 kva=25 wdg=3 bus=X2954361B.0.2 kv=0.12 kva=25 %imag=0.5 %rs=[0.6 1.2 1.2] %noloadloss=0.2 xhl=2.04 xht=2.04 xlt=1.36
New transformer.T5251863C phases=1 windings=3 wdg=1 bus=L2745811.3 kv=7.2 kva=25 wdg=2 bus=X2745811C.1.0 kv=0.12 kva=25 wdg=3 bus=X2745811C.0.2 kv=0.12 kva=25 %imag=0.5 %rs=[0.6 1.2 1.2] %noloadloss=0.2 xhl=2.04 xht=2.04 xlt=1.36
New transformer.T5293645A phases=1 windings=3 wdg=1 bus=L2841633.1 kv=7.2 kva=25 wdg=2 bus=X2841633A.1.0 kv=0.12 kva=25 wdg=3 bus=X2841633A.0.2 kv=0.12 kva=25 %imag=0.5 %rs=[0.6 1.2 1.2] %noloadloss=0.2 xhl=2.04 xht=2.04 xlt=1.36
New transformer.T21482431A phases=1 windings=3 wdg=1 bus=L2917359.1 kv=7.2 kva=15 wdg=2 bus=X2917359A.1.0 kv=0.12 kva=15 wdg=3 bus=X2917359A.0.2 kv=0.12 kva=15 %imag=0.5 %rs=[0.6 1.2 1.2] %noloadloss=0.2 xhl=2.04 xht=2.04 xlt=1.36
New transformer.T5293480A phases=1 windings=3 wdg=1 bus=L2748158.1 kv=7.2 kva=15 wdg=2 bus=X2748158A.1.0 kv=0.12 kva=15 wdg=3 bus=X2748158A.0.2 kv=0.12 kva=15 %imag=0.5 %rs=[0.6 1.2 1.2] %noloadloss=0.2 xhl=2.04 xht=2.04 xlt=1.36
New transformer.T21469911A phases=1 windings=3 wdg=1 bus=L2955047.1 kv=7.2 kva=25 wdg=2 bus=X2955047A.1.0 kv=0.12 kva=25 wdg=3 bus=X2955047A.0.2 kv=0.12 kva=25 %imag=0.5 %rs=[0.6 1.2 1.2] %noloadloss=0.2 xhl=2.04 xht=2.04 xlt=1.36
New transformer.T5355432C phases=1 windings=3 wdg=1 bus=L3122837.3 kv=7.2 kva=37.5 wdg=2 bus=X3122837C.1.0 kv=0.12 kva=37.5 wdg=3 bus=X3122837C.0.2 kv=0.12 kva=37.5 %imag=0.5 %rs=[0.6 1.2 1.2] %noloadloss=0.2 xhl=2.04 xht=2.04 xlt=1.36
New transformer.T5323285B phases=1 windings=3 wdg=1 bus=L2804269.2 kv=7.2 kva=25 wdg=2 bus=X2804269B.1.0 kv=0.12 kva=25 wdg=3 bus=X2804269B.0.2 kv=0.12 kva=25 %imag=0.5 %rs=[0.6 1.2 1.2] %noloadloss=0.2 xhl=2.04 xht=2.04 xlt=1.36
New transformer.T226192954C phases=1 windings=3 wdg=1 bus=L3157708.3 kv=7.2 kva=15 wdg=2 bus=X3157708C.1.0 kv=0.12 kva=15 wdg=3 bus=X3157708C.0.2 kv=0.12 kva=15 %imag=0.5 %rs=[0.6 1.2 1.2] %noloadloss=0.2 xhl=2.04 xht=2.04 xlt=1.36
New transformer.T5207292C phases=1 windings=3 wdg=1 bus=L3179682.3 kv=7.2 kva=15 wdg=2 bus=X3179682C.1.0 kv=0.12 kva=15 wdg=3 bus=X3179682C.0.2 kv=0.12 kva=15 %imag=0.5 %rs=[0.6 1.2 1.2] %noloadloss=0.2 xhl=2.04 xht=2.04 xlt=1.36
New transformer.T5337672B phases=1 windings=3 wdg=1 bus=L2822877.2 kv=7.2 kva=15 wdg=2 bus=X2822877B.1.0 kv=0.12 kva=15 wdg=3 bus=X2822877B.0.2 kv=0.12 kva=15 %imag=0.5 %rs=[0.6 1.2 1.2] %noloadloss=0.2 xhl=2.04 xht=2.04 xlt=1.36
New transformer.T5442373C phases=1 windings=3 wdg=1 bus=L3141393.3 kv=7.2 kva=25 wdg=2 bus=X3141393C.1.0 kv=0.12 kva=25 wdg=3 bus=X3141393C.0.2 kv=0.12 kva=25 %imag=0.5 %rs=[0.6 1.2 1.2] %noloadloss=0.2 xhl=2.04 xht=2.04 xlt=1.36
New transformer.T21470405A phases=1 windings=3 wdg=1 bus=L2897801.1 kv=7.2 kva=37.5 wdg=2 bus=X2897801A.1.0 kv=0.12 kva=37.5 wdg=3 bus=X2897801A.0.2 kv=0.12 kva=37.5 %imag=0.5 %rs=[0.6 1.2 1.2] %noloadloss=0.2 xhl=2.04 xht=2.04 xlt=1.36
New transformer.T5218474A phases=1 windings=3 wdg=1 bus=L3217056.1 kv=7.2 kva=50 wdg=2 bus=X3217056A.1.0 kv=0.12 kva=50 wdg=3 bus=X3217056A.0.2 kv=0.12 kva=50 %imag=0.5 %rs=[0.6 1.2 1.2] %noloadloss=0.2 xhl=2.04 xht=2.04 xlt=1.36
New transformer.T5218472A phases=1 windings=3 wdg=1 bus=L2936270.1 kv=7.2 kva=25 wdg=2 bus=X2936270A.1.0 kv=0.12 kva=25 wdg=3 bus=X2936270A.0.2 kv=0.12 kva=25 %imag=0.5 %rs=[0.6 1.2 1.2] %noloadloss=0.2 xhl=2.04 xht=2.04 xlt=1.36
New transformer.T5356014A phases=1 windings=3 wdg=1 bus=L3235249.1 kv=7.2 kva=10 wdg=2 bus=X3235249A.1.0 kv=0.12 kva=10 wdg=3 bus=X3235249A.0.2 kv=0.12 kva=10 %imag=0.5 %rs=[0.6 1.2 1.2] %noloadloss=0.2 xhl=2.04 xht=2.04 xlt=1.36
New transformer.T5260528C phases=1 windings=3 wdg=1 bus=L3217052.3 kv=7.2 kva=25 wdg=2 bus=X3217052C.1.0 kv=0.12 kva=25 wdg=3 bus=X3217052C.0.2 kv=0.12 kva=25 %imag=0.5 %rs=[0.6 1.2 1.2] %noloadloss=0.2 xhl=2.04 xht=2.04 xlt=1.36
New transformer.T5355933A phases=1 windings=3 wdg=1 bus=L2916598.1 kv=7.2 kva=10 wdg=2 bus=X2916598A.1.0 kv=0.12 kva=10 wdg=3 bus=X2916598A.0.2 kv=0.12 kva=10 %imag=0.5 %rs=[0.6 1.2 1.2] %noloadloss=0.2 xhl=2.04 xht=2.04 xlt=1.36
New transformer.T5138649A phases=1 windings=3 wdg=1 bus=L3048206.1 kv=7.2 kva=25 wdg=2 bus=X3048206A.1.0 kv=0.12 kva=25 wdg=3 bus=X3048206A.0.2 kv=0.12 kva=25 %imag=0.5 %rs=[0.6 1.2 1.2] %noloadloss=0.2 xhl=2.04 xht=2.04 xlt=1.36
New transformer.T5391978C phases=1 windings=3 wdg=1 bus=L3141402.3 kv=7.2 kva=25 wdg=2 bus=X3141402C.1.0 kv=0.12 kva=25 wdg=3 bus=X3141402C.0.2 kv=0.12 kva=25 %imag=0.5 %rs=[0.6 1.2 1.2] %noloadloss=0.2 xhl=2.04 xht=2.04 xlt=1.36
New transformer.T5138642A phases=1 windings=3 wdg=1 bus=L3235256.1 kv=7.2 kva=15 wdg=2 bus=X3235256A.1.0 kv=0.12 kva=15 wdg=3 bus=X3235256A.0.2 kv=0.12 kva=15 %imag=0.5 %rs=[0.6 1.2 1.2] %noloadloss=0.2 xhl=2.04 xht=2.04 xlt=1.36
New transformer.T21149420A phases=1 windings=3 wdg=1 bus=L3178973.1 kv=7.2 kva=25 wdg=2 bus=X3178973A.1.0 kv=0.12 kva=25 wdg=3 bus=X3178973A.0.2 kv=0.12 kva=25 %imag=0.5 %rs=[0.6 1.2 1.2] %noloadloss=0.2 xhl=2.04 xht=2.04 xlt=1.36
New transformer.T21382992A phases=1 windings=3 wdg=1 bus=L3197654.1 kv=7.2 kva=25 wdg=2 bus=X3197654A.1.0 kv=0.12 kva=25 wdg=3 bus=X3197654A.0.2 kv=0.12 kva=25 %imag=0.5 %rs=[0.6 1.2 1.2] %noloadloss=0.2 xhl=2.04 xht=2.04 xlt=1.36
New transformer.T5338958C phases=1 windings=3 wdg=1 bus=L3066809.3 kv=7.2 kva=25 wdg=2 bus=X3066809C.1.0 kv=0.12 kva=25 wdg=3 bus=X3066809C.0.2 kv=0.12 kva=25 %imag=0.5 %rs=[0.6 1.2 1.2] %noloadloss=0.2 xhl=2.04 xht=2.04 xlt=1.36
New transformer.T5355585B phases=1 windings=3 wdg=1 bus=L2766742.2 kv=7.2 kva=15 wdg=2 bus=X2766742B.1.0 kv=0.12 kva=15 wdg=3 bus=X2766742B.0.2 kv=0.12 kva=15 %imag=0.5 %rs=[0.6 1.2 1.2] %noloadloss=0.2 xhl=2.04 xht=2.04 xlt=1.36
New transformer.T5338900A phases=1 windings=3 wdg=1 bus=L2991908.1 kv=7.2 kva=15 wdg=2 bus=X2991908A.1.0 kv=0.12 kva=15 wdg=3 bus=X2991908A.0.2 kv=0.12 kva=15 %imag=0.5 %rs=[0.6 1.2 1.2] %noloadloss=0.2 xhl=2.04 xht=2.04 xlt=1.36
New transformer.T5323389B phases=1 windings=3 wdg=1 bus=L3065750.2 kv=7.2 kva=25 wdg=2 bus=X3065750B.1.0 kv=0.12 kva=25 wdg=3 bus=X3065750B.0.2 kv=0.12 kva=25 %imag=0.5 %rs=[0.6 1.2 1.2] %noloadloss=0.2 xhl=2.04 xht=2.04 xlt=1.36
New transformer.T28127253A phases=1 windings=3 wdg=1 bus=L3085401.1 kv=7.2 kva=37.5 wdg=2 bus=X3085401A.1.0 kv=0.12 kva=37.5 wdg=3 bus=X3085401A.0.2 kv=0.12 kva=37.5 %imag=0.5 %rs=[0.6 1.2 1.2] %noloadloss=0.2 xhl=2.04 xht=2.04 xlt=1.36
New transformer.T21397067A phases=1 windings=3 wdg=1 bus=L2729413.1 kv=7.2 kva=15 wdg=2 bus=X2729413A.1.0 kv=0.12 kva=15 wdg=3 bus=X2729413A.0.2 kv=0.12 kva=15 %imag=0.5 %rs=[0.6 1.2 1.2] %noloadloss=0.2 xhl=2.04 xht=2.04 xlt=1.36
New transformer.T5260520B phases=1 windings=3 wdg=1 bus=L3254915.2 kv=7.2 kva=5 wdg=2 bus=X3254915B.1.0 kv=0.12 kva=5 wdg=3 bus=X3254915B.0.2 kv=0.12 kva=5 %imag=0.5 %rs=[0.6 1.2 1.2] %noloadloss=0.2 xhl=2.04 xht=2.04 xlt=1.36
New transformer.T5323250B phases=1 windings=3 wdg=1 bus=L2748131.2 kv=7.2 kva=15 wdg=2 bus=X2748131B.1.0 kv=0.12 kva=15 wdg=3 bus=X2748131B.0.2 kv=0.12 kva=15 %imag=0.5 %rs=[0.6 1.2 1.2] %noloadloss=0.2 xhl=2.04 xht=2.04 xlt=1.36
New transformer.T5337659C phases=1 windings=3 wdg=1 bus=L3066810.3 kv=7.2 kva=25 wdg=2 bus=X3066810C.1.0 kv=0.12 kva=25 wdg=3 bus=X3066810C.0.2 kv=0.12 kva=25 %imag=0.5 %rs=[0.6 1.2 1.2] %noloadloss=0.2 xhl=2.04 xht=2.04 xlt=1.36
New transformer.T28118903B phases=1 windings=3 wdg=1 bus=L2973146.2 kv=7.2 kva=25 wdg=2 bus=X2973146B.1.0 kv=0.12 kva=25 wdg=3 bus=X2973146B.0.2 kv=0.12 kva=25 %imag=0.5 %rs=[0.6 1.2 1.2] %noloadloss=0.2 xhl=2.04 xht=2.04 xlt=1.36
New transformer.T21398646B phases=1 windings=3 wdg=1 bus=L2973180.2 kv=7.2 kva=25 wdg=2 bus=X2973180B.1.0 kv=0.12 kva=25 wdg=3 bus=X2973180B.0.2 kv=0.12 kva=25 %imag=0.5 %rs=[0.6 1.2 1.2] %noloadloss=0.2 xhl=2.04 xht=2.04 xlt=1.36
New transformer.T5293656B phases=1 windings=3 wdg=1 bus=L2973167.2 kv=7.2 kva=15 wdg=2 bus=X2973167B.1.0 kv=0.12 kva=15 wdg=3 bus=X2973167B.0.2 kv=0.12 kva=15 %imag=0.5 %rs=[0.6 1.2 1.2] %noloadloss=0.2 xhl=2.04 xht=2.04 xlt=1.36
New transformer.T5338910C phases=1 windings=3 wdg=1 bus=L2841621.3 kv=7.2 kva=25 wdg=2 bus=X2841621C.1.0 kv=0.12 kva=25 wdg=3 bus=X2841621C.0.2 kv=0.12 kva=25 %imag=0.5 %rs=[0.6 1.2 1.2] %noloadloss=0.2 xhl=2.04 xht=2.04 xlt=1.36
New transformer.T28129923C phases=1 windings=3 wdg=1 bus=L3123509.3 kv=7.2 kva=15 wdg=2 bus=X3123509C.1.0 kv=0.12 kva=15 wdg=3 bus=X3123509C.0.2 kv=0.12 kva=15 %imag=0.5 %rs=[0.6 1.2 1.2] %noloadloss=0.2 xhl=2.04 xht=2.04 xlt=1.36
New transformer.T5337716A phases=1 windings=3 wdg=1 bus=L2841627.1 kv=7.2 kva=15 wdg=2 bus=X2841627A.1.0 kv=0.12 kva=15 wdg=3 bus=X2841627A.0.2 kv=0.12 kva=15 %imag=0.5 %rs=[0.6 1.2 1.2] %noloadloss=0.2 xhl=2.04 xht=2.04 xlt=1.36
New transformer.T5337698B phases=1 windings=3 wdg=1 bus=L3235250.2 kv=7.2 kva=10 wdg=2 bus=X3235250B.1.0 kv=0.12 kva=10 wdg=3 bus=X3235250B.0.2 kv=0.12 kva=10 %imag=0.5 %rs=[0.6 1.2 1.2] %noloadloss=0.2 xhl=2.04 xht=2.04 xlt=1.36
New transformer.T2224386946A phases=1 windings=3 wdg=1 bus=L3728037.1 kv=7.2 kva=25 wdg=2 bus=X3728037A.1.0 kv=0.12 kva=25 wdg=3 bus=X3728037A.0.2 kv=0.12 kva=25 %imag=0.5 %rs=[0.6 1.2 1.2] %noloadloss=0.2 xhl=2.04 xht=2.04 xlt=1.36
New transformer.T5330121B phases=1 windings=3 wdg=1 bus=L3142078.2 kv=7.2 kva=10 wdg=2 bus=X3142078B.1.0 kv=0.12 kva=10 wdg=3 bus=X3142078B.0.2 kv=0.12 kva=10 %imag=0.5 %rs=[0.6 1.2 1.2] %noloadloss=0.2 xhl=2.04 xht=2.04 xlt=1.36
New transformer.T5323252B phases=1 windings=3 wdg=1 bus=L2879066.2 kv=7.2 kva=15 wdg=2 bus=X2879066B.1.0 kv=0.12 kva=15 wdg=3 bus=X2879066B.0.2 kv=0.12 kva=15 %imag=0.5 %rs=[0.6 1.2 1.2] %noloadloss=0.2 xhl=2.04 xht=2.04 xlt=1.36
New transformer.T5441331C phases=1 windings=3 wdg=1 bus=L3235254.3 kv=7.2 kva=25 wdg=2 bus=X3235254C.1.0 kv=0.12 kva=25 wdg=3 bus=X3235254C.0.2 kv=0.12 kva=25 %imag=0.5 %rs=[0.6 1.2 1.2] %noloadloss=0.2 xhl=2.04 xht=2.04 xlt=1.36
New transformer.T5260474A phases=1 windings=3 wdg=1 bus=L2917330.1 kv=7.2 kva=25 wdg=2 bus=X2917330A.1.0 kv=0.12 kva=25 wdg=3 bus=X2917330A.0.2 kv=0.12 kva=25 %imag=0.5 %rs=[0.6 1.2 1.2] %noloadloss=0.2 xhl=2.04 xht=2.04 xlt=1.36
New transformer.T5355376B phases=1 windings=3 wdg=1 bus=L2914323.2 kv=7.2 kva=10 wdg=2 bus=X2914323B.1.0 kv=0.12 kva=10 wdg=3 bus=X2914323B.0.2 kv=0.12 kva=10 %imag=0.5 %rs=[0.6 1.2 1.2] %noloadloss=0.2 xhl=2.04 xht=2.04 xlt=1.36
New transformer.T5338944C phases=1 windings=3 wdg=1 bus=L3197640.3 kv=7.2 kva=10 wdg=2 bus=X3197640C.1.0 kv=0.12 kva=10 wdg=3 bus=X3197640C.0.2 kv=0.12 kva=10 %imag=0.5 %rs=[0.6 1.2 1.2] %noloadloss=0.2 xhl=2.04 xht=2.04 xlt=1.36
New transformer.T5260640C phases=1 windings=3 wdg=1 bus=L3179673.3 kv=7.2 kva=15 wdg=2 bus=X3179673C.1.0 kv=0.12 kva=15 wdg=3 bus=X3179673C.0.2 kv=0.12 kva=15 %imag=0.5 %rs=[0.6 1.2 1.2] %noloadloss=0.2 xhl=2.04 xht=2.04 xlt=1.36
New transformer.T5274997C phases=1 windings=3 wdg=1 bus=L3048228.3 kv=7.2 kva=25 wdg=2 bus=X3048228C.1.0 kv=0.12 kva=25 wdg=3 bus=X3048228C.0.2 kv=0.12 kva=25 %imag=0.5 %rs=[0.6 1.2 1.2] %noloadloss=0.2 xhl=2.04 xht=2.04 xlt=1.36
New transformer.T5138372C phases=1 windings=3 wdg=1 bus=L3104126.3 kv=7.2 kva=10 wdg=2 bus=X3104126C.1.0 kv=0.12 kva=10 wdg=3 bus=X3104126C.0.2 kv=0.12 kva=10 %imag=0.5 %rs=[0.6 1.2 1.2] %noloadloss=0.2 xhl=2.04 xht=2.04 xlt=1.36
New transformer.T226308721A phases=1 windings=3 wdg=1 bus=L2990098.1 kv=7.2 kva=50 wdg=2 bus=X2990098A.1.0 kv=0.12 kva=50 wdg=3 bus=X2990098A.0.2 kv=0.12 kva=50 %imag=0.5 %rs=[0.6 1.2 1.2] %noloadloss=0.2 xhl=2.04 xht=2.04 xlt=1.36
New transformer.T21380616A phases=1 windings=3 wdg=1 bus=L2879067.1 kv=7.2 kva=25 wdg=2 bus=X2879067A.1.0 kv=0.12 kva=25 wdg=3 bus=X2879067A.0.2 kv=0.12 kva=25 %imag=0.5 %rs=[0.6 1.2 1.2] %noloadloss=0.2 xhl=2.04 xht=2.04 xlt=1.36
New transformer.T226193170A phases=1 windings=3 wdg=1 bus=L3176656.1 kv=7.2 kva=25 wdg=2 bus=X3176656A.1.0 kv=0.12 kva=25 wdg=3 bus=X3176656A.0.2 kv=0.12 kva=25 %imag=0.5 %rs=[0.6 1.2 1.2] %noloadloss=0.2 xhl=2.04 xht=2.04 xlt=1.36
New transformer.T5293666C phases=1 windings=3 wdg=1 bus=L2710532.3 kv=7.2 kva=10 wdg=2 bus=X2710532C.1.0 kv=0.12 kva=10 wdg=3 bus=X2710532C.0.2 kv=0.12 kva=10 %imag=0.5 %rs=[0.6 1.2 1.2] %noloadloss=0.2 xhl=2.04 xht=2.04 xlt=1.36
New transformer.T5338994B phases=1 windings=3 wdg=1 bus=L3160115.2 kv=7.2 kva=50 wdg=2 bus=X3160115B.1.0 kv=0.12 kva=50 wdg=3 bus=X3160115B.0.2 kv=0.12 kva=50 %imag=0.5 %rs=[0.6 1.2 1.2] %noloadloss=0.2 xhl=2.04 xht=2.04 xlt=1.36
New transformer.T228665517C phases=1 windings=3 wdg=1 bus=L3103822.3 kv=7.2 kva=37.5 wdg=2 bus=X3103822C.1.0 kv=0.12 kva=37.5 wdg=3 bus=X3103822C.0.2 kv=0.12 kva=37.5 %imag=0.5 %rs=[0.6 1.2 1.2] %noloadloss=0.2 xhl=2.04 xht=2.04 xlt=1.36
New transformer.T5260647A phases=1 windings=3 wdg=1 bus=L2805034.1 kv=7.2 kva=10 wdg=2 bus=X2805034A.1.0 kv=0.12 kva=10 wdg=3 bus=X2805034A.0.2 kv=0.12 kva=10 %imag=0.5 %rs=[0.6 1.2 1.2] %noloadloss=0.2 xhl=2.04 xht=2.04 xlt=1.36
New transformer.T226115278A phases=1 windings=3 wdg=1 bus=L3157167.1 kv=7.2 kva=15 wdg=2 bus=X3157167A.1.0 kv=0.12 kva=15 wdg=3 bus=X3157167A.0.2 kv=0.12 kva=15 %imag=0.5 %rs=[0.6 1.2 1.2] %noloadloss=0.2 xhl=2.04 xht=2.04 xlt=1.36
New transformer.T5338977A phases=1 windings=3 wdg=1 bus=L2916620.1 kv=7.2 kva=10 wdg=2 bus=X2916620A.1.0 kv=0.12 kva=10 wdg=3 bus=X2916620A.0.2 kv=0.12 kva=10 %imag=0.5 %rs=[0.6 1.2 1.2] %noloadloss=0.2 xhl=2.04 xht=2.04 xlt=1.36
New transformer.T5338977B phases=1 windings=3 wdg=1 bus=L2916620.2 kv=7.2 kva=10 wdg=2 bus=X2916620B.1.0 kv=0.12 kva=10 wdg=3 bus=X2916620B.0.2 kv=0.12 kva=10 %imag=0.5 %rs=[0.6 1.2 1.2] %noloadloss=0.2 xhl=2.04 xht=2.04 xlt=1.36
New transformer.T5338977C phases=1 windings=3 wdg=1 bus=L2916620.3 kv=7.2 kva=10 wdg=2 bus=X2916620C.1.0 kv=0.12 kva=10 wdg=3 bus=X2916620C.0.2 kv=0.12 kva=10 %imag=0.5 %rs=[0.6 1.2 1.2] %noloadloss=0.2 xhl=2.04 xht=2.04 xlt=1.36
New transformer.T5321876A phases=1 windings=3 wdg=1 bus=L3027132.1 kv=7.2 kva=15 wdg=2 bus=X3027132A.1.0 kv=0.12 kva=15 wdg=3 bus=X3027132A.0.2 kv=0.12 kva=15 %imag=0.5 %rs=[0.6 1.2 1.2] %noloadloss=0.2 xhl=2.04 xht=2.04 xlt=1.36
New transformer.T5275001C phases=1 windings=3 wdg=1 bus=L2822862.3 kv=7.2 kva=15 wdg=2 bus=X2822862C.1.0 kv=0.12 kva=15 wdg=3 bus=X2822862C.0.2 kv=0.12 kva=15 %imag=0.5 %rs=[0.6 1.2 1.2] %noloadloss=0.2 xhl=2.04 xht=2.04 xlt=1.36
New transformer.T227411650C phases=1 windings=3 wdg=1 bus=L2937757.3 kv=7.2 kva=25 wdg=2 bus=X2937757C.1.0 kv=0.12 kva=25 wdg=3 bus=X2937757C.0.2 kv=0.12 kva=25 %imag=0.5 %rs=[0.6 1.2 1.2] %noloadloss=0.2 xhl=2.04 xht=2.04 xlt=1.36
New transformer.T21396699B phases=1 windings=3 wdg=1 bus=L2860483.2 kv=7.2 kva=25 wdg=2 bus=X2860483B.1.0 kv=0.12 kva=25 wdg=3 bus=X2860483B.0.2 kv=0.12 kva=25 %imag=0.5 %rs=[0.6 1.2 1.2] %noloadloss=0.2 xhl=2.04 xht=2.04 xlt=1.36
New transformer.T5302412A phases=1 windings=3 wdg=1 bus=L3048210.1 kv=7.2 kva=37.5 wdg=2 bus=X3048210A.1.0 kv=0.12 kva=37.5 wdg=3 bus=X3048210A.0.2 kv=0.12 kva=37.5 %imag=0.5 %rs=[0.6 1.2 1.2] %noloadloss=0.2 xhl=2.04 xht=2.04 xlt=1.36
New transformer.T2223661373A phases=1 windings=3 wdg=1 bus=L3312692.1 kv=7.2 kva=25 wdg=2 bus=X3312692A.1.0 kv=0.12 kva=25 wdg=3 bus=X3312692A.0.2 kv=0.12 kva=25 %imag=0.5 %rs=[0.6 1.2 1.2] %noloadloss=0.2 xhl=2.04 xht=2.04 xlt=1.36
New transformer.T226881700A phases=1 windings=3 wdg=1 bus=L3251854.1 kv=7.2 kva=25 wdg=2 bus=X3251854A.1.0 kv=0.12 kva=25 wdg=3 bus=X3251854A.0.2 kv=0.12 kva=25 %imag=0.5 %rs=[0.6 1.2 1.2] %noloadloss=0.2 xhl=2.04 xht=2.04 xlt=1.36
New transformer.T5355777B phases=1 windings=3 wdg=1 bus=L3085398.2 kv=7.2 kva=25 wdg=2 bus=X3085398B.1.0 kv=0.12 kva=25 wdg=3 bus=X3085398B.0.2 kv=0.12 kva=25 %imag=0.5 %rs=[0.6 1.2 1.2] %noloadloss=0.2 xhl=2.04 xht=2.04 xlt=1.36
New transformer.T5337671A phases=1 windings=3 wdg=1 bus=L3254207.1 kv=7.2 kva=15 wdg=2 bus=X3254207A.1.0 kv=0.12 kva=15 wdg=3 bus=X3254207A.0.2 kv=0.12 kva=15 %imag=0.5 %rs=[0.6 1.2 1.2] %noloadloss=0.2 xhl=2.04 xht=2.04 xlt=1.36
New transformer.T5339018A phases=1 windings=3 wdg=1 bus=L2729424.1 kv=7.2 kva=15 wdg=2 bus=X2729424A.1.0 kv=0.12 kva=15 wdg=3 bus=X2729424A.0.2 kv=0.12 kva=15 %imag=0.5 %rs=[0.6 1.2 1.2] %noloadloss=0.2 xhl=2.04 xht=2.04 xlt=1.36
New transformer.T21398676A phases=1 windings=3 wdg=1 bus=L3066816.1 kv=7.2 kva=15 wdg=2 bus=X3066816A.1.0 kv=0.12 kva=15 wdg=3 bus=X3066816A.0.2 kv=0.12 kva=15 %imag=0.5 %rs=[0.6 1.2 1.2] %noloadloss=0.2 xhl=2.04 xht=2.04 xlt=1.36
New transformer.T5138469C phases=1 windings=3 wdg=1 bus=L2785518.3 kv=7.2 kva=15 wdg=2 bus=X2785518C.1.0 kv=0.12 kva=15 wdg=3 bus=X2785518C.0.2 kv=0.12 kva=15 %imag=0.5 %rs=[0.6 1.2 1.2] %noloadloss=0.2 xhl=2.04 xht=2.04 xlt=1.36
New transformer.T5138373C phases=1 windings=3 wdg=1 bus=L3029503.3 kv=7.2 kva=15 wdg=2 bus=X3029503C.1.0 kv=0.12 kva=15 wdg=3 bus=X3029503C.0.2 kv=0.12 kva=15 %imag=0.5 %rs=[0.6 1.2 1.2] %noloadloss=0.2 xhl=2.04 xht=2.04 xlt=1.36
New transformer.T5391995A phases=1 windings=3 wdg=1 bus=L2748140.1 kv=7.2 kva=25 wdg=2 bus=X2748140A.1.0 kv=0.12 kva=25 wdg=3 bus=X2748140A.0.2 kv=0.12 kva=25 %imag=0.5 %rs=[0.6 1.2 1.2] %noloadloss=0.2 xhl=2.04 xht=2.04 xlt=1.36
New transformer.T225533423C phases=1 windings=3 wdg=1 bus=L2891575.3 kv=7.2 kva=15 wdg=2 bus=X2891575C.1.0 kv=0.12 kva=15 wdg=3 bus=X2891575C.0.2 kv=0.12 kva=15 %imag=0.5 %rs=[0.6 1.2 1.2] %noloadloss=0.2 xhl=2.04 xht=2.04 xlt=1.36
New transformer.T5260568C phases=1 windings=3 wdg=1 bus=L2842329.3 kv=7.2 kva=15 wdg=2 bus=X2842329C.1.0 kv=0.12 kva=15 wdg=3 bus=X2842329C.0.2 kv=0.12 kva=15 %imag=0.5 %rs=[0.6 1.2 1.2] %noloadloss=0.2 xhl=2.04 xht=2.04 xlt=1.36
New transformer.T5138754B phases=1 windings=3 wdg=1 bus=L3254212.2 kv=7.2 kva=37.5 wdg=2 bus=X3254212B.1.0 kv=0.12 kva=37.5 wdg=3 bus=X3254212B.0.2 kv=0.12 kva=37.5 %imag=0.5 %rs=[0.6 1.2 1.2] %noloadloss=0.2 xhl=2.04 xht=2.04 xlt=1.36
New transformer.T5260552A phases=1 windings=3 wdg=1 bus=L3198348.1 kv=7.2 kva=50 wdg=2 bus=X3198348A.1.0 kv=0.12 kva=50 wdg=3 bus=X3198348A.0.2 kv=0.12 kva=50 %imag=0.5 %rs=[0.6 1.2 1.2] %noloadloss=0.2 xhl=2.04 xht=2.04 xlt=1.36
New transformer.T5338968C phases=1 windings=3 wdg=1 bus=L3178979.3 kv=7.2 kva=37.5 wdg=2 bus=X3178979C.1.0 kv=0.12 kva=37.5 wdg=3 bus=X3178979C.0.2 kv=0.12 kva=37.5 %imag=0.5 %rs=[0.6 1.2 1.2] %noloadloss=0.2 xhl=2.04 xht=2.04 xlt=1.36
New transformer.T5247061A phases=1 windings=3 wdg=1 bus=L2879054.1 kv=7.2 kva=25 wdg=2 bus=X2879054A.1.0 kv=0.12 kva=25 wdg=3 bus=X2879054A.0.2 kv=0.12 kva=25 %imag=0.5 %rs=[0.6 1.2 1.2] %noloadloss=0.2 xhl=2.04 xht=2.04 xlt=1.36
New transformer.T5391746B phases=1 windings=3 wdg=1 bus=L3085388.2 kv=7.2 kva=10 wdg=2 bus=X3085388B.1.0 kv=0.12 kva=10 wdg=3 bus=X3085388B.0.2 kv=0.12 kva=10 %imag=0.5 %rs=[0.6 1.2 1.2] %noloadloss=0.2 xhl=2.04 xht=2.04 xlt=1.36
...